AVRELIVS 217 AVRELIVS

 

Antoninianos-um VI 2001 Maximinum d. 25 mensis Martii a. 235 Romae
aynitum esse vel perpaucis diebus ante, cum cooptationes eiusmodi senatus
consulta de novo Auyusto excipere solerent. Itaque testimonia quae entant de
reyni spatio Alexandri ita comprobantur, ut occisus sit medio fere mense
Martio a. 235 et reynarit annos tredecim et paucos dies.

1301 L. Aurel[ius] Step[hanus?],‘procurator Aug. [XX] her[editat.] . . . .
X 121 t. mutilus in ayro Consentino repertum· ‘titulus sincerus videtur,
profertur tamen cnm false’s' adnotat Mommsen.

1305 M. Aurel(ius) Stertinius Carpus, filius Carpi proc(uratoris) k(astren-
sis), procurator imperatoris Commodi VI 727.

— L. 1VL(1vs) AVROEmvs) SVLPUGIVS) VRA(N1vs) ANTONlNVS.

1306 AVRELIVS SYMFORVS siano Acholi (certe Acholi vocabulum iuncta
perscriptum est in t.), vir clarissimus, maritus Iuniae AfflanetiS, pater
Iuniae Cyriaces VI 29706 t. omfyinis incertae, fortasse saeculi IIII. —
Saeculo II testamentum Aurelii Symphori memoratur a (Um-iddio)
Scaevola Diyest. 34, 3, 28 pr.

— TI. CLAVDIVS AVRELIVS TELEMACHVS.
— Μ. AELIVS AVRELIVS THEO.

1307 Μ. Aul-(elius) Tiberianae, vir perfectissimus, praeses provinciae
Del(matiae) a. 280 III 1805 t. Naronensz'S.

1308 AVRELIVS TITIANJVS] memoratur ‘in titulo mutilo Moyontiaeensi
semel descripto Brambaeh‚ Corpus Inscriptionum Rhenanarnm 1304.·
..... cos. 1111 proeon........... Aureli Titian ......tus
d. leg. VIII Au[g.] An[to]ninian. ete. Titulus posaetus est Antonino
Severi f. non ante a. 213, quo consul IIII fuit,· en lapide vzdetur ex-
titaesse [sub cura] Aureli Titian[i] [leg. Aug.] et hie favisse leyatas leq.
VIII vel Germaniae superioris.

1309 [A]urelius Va . . ., [subpraef.?] vig(ilum) t. Ostiensis Ephem. ep.
7, 1214.

1310 M. AVR(ELIVS) VALENTINIANVS. Titulos posuit a. 283 Tarracone
Caro II 4102 (1), Carino II 4103 (2), Aquinei III 3418 (3), ubi eam
plures versus erasi sint, nomen Carini deletum esse videtur.

Μ. Aur(elius) ValentinianuS, clarissimus vir t. 1. 2. 3,· a. 283
praeses provinciae Hispaniae citerioris, legatus Augustorum pr. pr.
t. 1. 2,· (a. 2842) legatus Augusti pr. pr. (Pannoniae inferioris) t. 3.

1311 M. Aur(elius) ValeriuS, origine Naronensis, vir perfectissimum,
ducenarius, ex protectoribus lateris divini a. 280 III 1805 t. Naro-

'1312 Aur(elius) Verecundus, vir egregiuS, pr0(curator) argentariarum
a. 274 t. in Bosnv'a repertas Archaeoloyiselz·Epiyraphiselze Misthei-
lunyen aus Oesterreieh XVI (1893) p. 133 = III S. 12736.

1313 Aurelius Verus vitam Traiani scripsit vit. Alexandri 48, 6.
- ῙΜΡ. CAESAR L. AVRELIVS VERVS AVGVS'I'VS = L. CEIONIVS
COMMODVS.

