CLAVDIVS 402 CLAVDIVS

 

Aureliani et electionem Taciti, interregnum sex mensium sive septem,
quod refertur vita 1, 1,· 2, 1. 6, Epitome 35, 9, prorsus ficticium est.

⁴¹⁰ us( Frater: Γ. Annius Florianus. Liberos permultos reliquit vita 16, 4.

823 APPIVS CLAVDIVS TARRONIVS DEXTER, vir clarissimus deo Mithrae
dedicavit t. X 1479 Neapoli qui hodie extat. Fortasse saeculi IIII
cf. Borqhesi opp. VIII p. 199, Seeck praef. Symmach. p. LI.

824 CL(AVDIVS) TEBENS, pater Claudii Illyrii in t. filii Δελτίον ἀρχαιο-
λογικόν V (1889) p. 133 n. 14. Vide supra sub filio.

825 TI. CL(AVDIVS) TELEMACHVS. Tituli Lycii qraece scripti: ἐρεῖ positas
est Sidymensis· Benmlorf, Rei-sen in Lykien p. 67 n. 42 (1), φηεηιοναίαν
in t. Sidymae repertis ibcl. p. 67 n. 41 (2) uxoris, p. 71 n. 50 (3), p. 73
n. 52 (4), in t. Xanthio CI G 4274 Addit. p. 1124 = Lebas-Wad-
‹linyton 1257 (5).

Tria nomina exhibent t. omneS, in t. 3, ubi nomina imperatoris
erasa sunt , nontina Telemachi post raswram restituta sunt. — Civis
Xanthi et Sidymae t. 1. 3, princeps gerusiae Sidymae t. 4, Lyciarcha
t. 3. 5. — Quaestor Achaiae, legatus Asiae et (in ea legatione) oecista
Laodiceae et Hierapolis, curator civitatis Callatianorum Moesiae (in-
ferioris), consularis (cos. suffectus anno incerto sub finem saeculi II ut
m'detur) t. 1.

Maritus Tiberias Claudiae Arsasis t. 2, pater Ti. Claudii Stasi-
themidis et Claudiae Arsinoes t. 1. 2, avus Ti. Claudii Aurelii Tele-
machi t. 2. -— Pater Telemachi videtur Stasithemis Si[dymaeus] hono-
ratus t. Xanthia mutilo Monatsberichte der Berliner Akad. 1865 p. 612.

Potest idem esse Claudius Telemachus quem merteorat Paulus Diyest.
4, 4, 38 pr.

826 TI. CLAVDIVS ..... LA THEOPROPVS, ὁ κράτιστος ὑπατικός = consularis
(cos, suffectus anno incerto saeculi II vel III) honoratus t. Ohalcetico In-
scriptiones yraecae insularum I 959. - Pater huius videtur Theopropus
Olympionica, quem celebrat epiqramma Olympiae repertum Kaibcl,
Epiyrammata yraeca 934 εὐπατρίδην Ῥόδιον συνκλητικῶν γενετῆρα.

- Ti. Claudius Thrasyllus vide Thrasyllus.

827 Claudius Timarchus, Cretensis in senatu reus anno 62 Tac. a. 15, 20.

828 C. CL(AVD1VS) TITIANVS memoratur in t. Eleusino Bulletin de cor-
respondance Hellenique VI (1882) p. 436 mulieris cuiusdam, cuius nomen
periit, quae dicitur ἀδελφιδῆ C. Claudii Titiani, filia Ph[ilip]pae (filiae)
Ol. Demostrati.

Vir clarissimus (συνκλητικός), tribunus (militum), Xvir (stlitibus
iudicandis), quaestor provinciae Achaiae, tribunus plebis, praetor,
proconsul Cretae tit. — Cum Claudius Demostratus idem videatur
atque Demostratus adversarius Attici HerodiS, t. ad fmem saeculi II
referendus est.

829 Claudius Tryphoninus, iure consultus in consilio principis (Antonini
Severi f.) fuit Paulus Diyest. 49, 14, 50,- rescriptum Antonini ad eum

 

